aa1a1u
  MOLSOFT 08202610022D

 78 89  0  0  1  0  0  0  0  0999 V2000
   -1.4000    0.0000    0.0000 C   0  0  0
   -0.0000    0.0000    0.0000 C   0  0  0
    0.8229    1.1326    0.0000 N   0  0  0
    2.1544    0.7000    0.0000 C   0  0  0
    2.1544   -0.7000    0.0000 S   0  0  0
    0.8229   -1.1326    0.0000 C   0  0  0
    0.3903   -2.4641    0.0000 C   0  0  0
    1.3271   -3.5045    0.0000 C   0  0  0
    0.8944   -4.8360    0.0000 C   0  0  0
   -0.4750   -5.1271    0.0000 C   0  0  0
   -0.9076   -6.4585    0.0000 C   0  0  2
   -2.2770   -6.7496    0.0000 C   0  0  0
   -3.2138   -5.7092    0.0000 N   0  0  0
   -4.5832   -6.0003    0.0000 C   0  0  0
   -5.5200   -4.9599    0.0000 C   0  0  0
   -5.0874   -3.6284    0.0000 O   0  0  0
   -3.7179   -3.3373    0.0000 C   0  0  0
   -2.7812   -4.3777    0.0000 C   0  0  0
    0.0292   -7.4989    0.0000 N   0  0  0
   -0.4034   -8.8304    0.0000 C   0  0  0
   -1.7728   -9.1215    0.0000 O   0  0  0
    0.5333   -9.8708    0.0000 C   0  0  2
    1.9257   -9.7245    0.0000 C   0  0  0
    2.4951  -11.0034    0.0000 C   0  0  1
    3.8645  -11.2945    0.0000 O   0  0  0
    1.4547  -11.9402    0.0000 C   0  0  0
    0.2423  -11.2402    0.0000 N   0  0  0
   -1.0367  -11.8097    0.0000 C   0  0  0
   -2.1693  -10.9868    0.0000 O   0  0  0
   -1.1830  -13.2020    0.0000 C   0  0  1
   -0.0504  -14.0249    0.0000 N   0  0  0
    1.2811  -13.5923    0.0000 C   0  0  0
    2.1040  -14.7249    0.0000 C   0  0  0
    3.5040  -14.7249    0.0000 C   0  0  2
    4.2040  -13.5125    0.0000 C   0  0  0
    5.6040  -13.5125    0.0000 C   0  0  0
    6.3040  -14.7249    0.0000 C   0  0  1
    7.7040  -14.7249    0.0000 C   0  0  0
    8.4040  -13.5125    0.0000 N   0  0  0
    7.7040  -12.3000    0.0000 C   0  0  0
    8.4040  -11.0876    0.0000 C   0  0  0
    9.8040  -11.0876    0.0000 C   0  0  0
   10.5040   -9.8751    0.0000 C   0  0  0
    9.8040   -8.6627    0.0000 C   0  0  0
   10.5040   -7.4503    0.0000 C   0  0  0
   11.9040   -7.4503    0.0000 C   0  0  0
   12.6040   -8.6627    0.0000 C   0  0  0
   11.9040   -9.8751    0.0000 C   0  0  0
   13.9734   -8.3716    0.0000 N   0  0  0
   14.1197   -6.9793    0.0000 C   0  0  0
   15.3987   -6.4099    0.0000 N   0  0  0
   16.5313   -7.2328    0.0000 C   0  0  0
   17.8103   -6.6633    0.0000 O   0  0  0
   16.3850   -8.6251    0.0000 C   0  0  0
   17.5176   -9.4480    0.0000 C   0  0  0
   18.7965   -8.8786    0.0000 Cl  0  0  0
   17.3712  -10.8403    0.0000 C   0  0  0
   16.0923  -11.4098    0.0000 C   0  0  0
   14.9597  -10.5869    0.0000 C   0  0  0
   15.1060   -9.1945    0.0000 C   0  0  0
   12.8408   -6.4099    0.0000 C   0  0  0
   11.5093   -5.9772    0.0000 C   0  0  0
   11.2182   -4.6078    0.0000 C   0  0  0
   12.2586   -3.6711    0.0000 C   0  0  0
   13.5901   -4.1037    0.0000 C   0  0  0
   13.8812   -5.4731    0.0000 C   0  0  0
   10.5040  -12.3000    0.0000 C   0  0  0
    9.8040  -13.5125    0.0000 C   0  0  0
    5.6040  -15.9373    0.0000 C   0  0  0
    4.2040  -15.9373    0.0000 C   0  0  0
    1.2811  -15.8575    0.0000 N   0  0  0
   -0.0504  -15.4249    0.0000 N   0  0  0
   -2.4620  -13.7714    0.0000 C   0  0  0
   -1.8926  -15.0504    0.0000 C   0  0  0
   -3.0314  -12.4925    0.0000 C   0  0  0
   -3.7410  -14.3409    0.0000 C   0  0  0
   -1.4118   -4.0867    0.0000 C   0  0  0
   -0.9791   -2.7552    0.0000 C   0  0  0
  1  2  1
  2  3  1
  2  6  2
  3  4  2
  4  5  1
  5  6  1
  6  7  1
  7 78  2
  7  8  1
  8  9  2
  9 10  1
 10 77  2
 11 10  1  1  0
 11 12  1
 11 19  1
 12 13  1
 13 14  1
 13 18  1
 14 15  1
 15 16  1
 16 17  1
 17 18  1
 19 20  1
 20 21  2
 22 20  1  6  0
 22 23  1
 22 27  1
 24 23  1
 24 26  1
 24 25  1  1  0
 26 27  1
 27 28  1
 28 29  2
 30 28  1
 30 73  1  1  0
 30 31  1
 31 72  1
 31 32  1
 32 33  2
 34 33  1  6  0
 33 71  1
 34 70  1
 34 35  1
 35 36  1
 37 36  1
 37 69  1
 37 38  1  1  0
 38 39  1
 39 40  1
 39 68  1
 40 41  1
 41 42  1
 42 67  1
 42 43  1
 43 48  2
 43 44  1
 44 45  2
 45 46  1
 46 61  1
 46 47  2
 47 49  1
 47 48  1
 49 50  1
 49 60  1
 50 51  2
 50 61  1
 51 52  1
 52 54  1
 52 53  2
 54 60  1
 54 55  2
 55 56  1
 55 57  1
 57 58  2
 58 59  1
 59 60  2
 61 66  1
 61 62  1
 62 63  1
 63 64  1
 64 65  1
 65 66  1
 67 68  1
 69 70  1
 71 72  2
 73 74  1
 73 75  1
 73 76  1
 77 78  1
M  ZZC   1 c1
M  ZZC   2 c2
M  ZZC   3 n1
M  ZZC   4 c3
M  ZZC   5 s1
M  ZZC   6 c4
M  ZZC   7 c5
M  ZZC   8 c6
M  ZZC   9 c7
M  ZZC  10 c8
M  ZZC  11 c9
M  ZZC  12 c10
M  ZZC  13 n2
M  ZZC  14 c11
M  ZZC  15 c12
M  ZZC  16 o1
M  ZZC  17 c13
M  ZZC  18 c14
M  ZZC  19 n3
M  ZZC  20 c15
M  ZZC  21 o2
M  ZZC  22 c16
M  ZZC  23 c17
M  ZZC  24 c18
M  ZZC  25 o3
M  ZZC  26 c19
M  ZZC  27 n4
M  ZZC  28 c20
M  ZZC  29 o4
M  ZZC  30 c21
M  ZZC  31 n5
M  ZZC  32 c22
M  ZZC  33 c23
M  ZZC  34 c24
M  ZZC  35 c25
M  ZZC  36 c26
M  ZZC  37 c27
M  ZZC  38 c28
M  ZZC  39 n6
M  ZZC  40 c29
M  ZZC  41 c30
M  ZZC  42 c31
M  ZZC  43 c32
M  ZZC  44 c33
M  ZZC  45 c34
M  ZZC  46 c35
M  ZZC  47 c36
M  ZZC  48 c37
M  ZZC  49 n7
M  ZZC  50 c38
M  ZZC  51 n8
M  ZZC  52 c39
M  ZZC  53 o5
M  ZZC  54 c40
M  ZZC  55 c41
M  ZZC  56 &Cl1
M  ZZC  57 c42
M  ZZC  58 c43
M  ZZC  59 c44
M  ZZC  60 c45
M  ZZC  61 c46
M  ZZC  62 c47
M  ZZC  63 c48
M  ZZC  64 c49
M  ZZC  65 c50
M  ZZC  66 c51
M  ZZC  67 c52
M  ZZC  68 c53
M  ZZC  69 c54
M  ZZC  70 c55
M  ZZC  71 n9
M  ZZC  72 n10
M  ZZC  73 c56
M  ZZC  74 c57
M  ZZC  75 c58
M  ZZC  76 c59
M  ZZC  77 c60
M  ZZC  78 c61
M  ZZA   1 a
M  ZZA   2 a
M  ZZA   3 a
M  ZZA   4 a
M  ZZA   5 a
M  ZZA   6 a
M  ZZA   7 a
M  ZZA   8 a
M  ZZA   9 a
M  ZZA  10 a
M  ZZA  11 a
M  ZZA  12 a
M  ZZA  13 a
M  ZZA  14 a
M  ZZA  15 a
M  ZZA  16 a
M  ZZA  17 a
M  ZZA  18 a
M  ZZA  19 a
M  ZZA  20 a
M  ZZA  21 a
M  ZZA  22 a
M  ZZA  23 a
M  ZZA  24 a
M  ZZA  25 a
M  ZZA  26 a
M  ZZA  27 a
M  ZZA  28 a
M  ZZA  29 a
M  ZZA  30 a
M  ZZA  31 a
M  ZZA  32 a
M  ZZA  33 a
M  ZZA  34 a
M  ZZA  35 a
M  ZZA  36 a
M  ZZA  37 a
M  ZZA  38 a
M  ZZA  39 a
M  ZZA  40 a
M  ZZA  41 a
M  ZZA  42 a
M  ZZA  43 a
M  ZZA  44 a
M  ZZA  45 a
M  ZZA  46 a
M  ZZA  47 a
M  ZZA  48 a
M  ZZA  49 a
M  ZZA  50 a
M  ZZA  51 a
M  ZZA  52 a
M  ZZA  53 a
M  ZZA  54 a
M  ZZA  55 a
M  ZZA  56 a
M  ZZA  57 a
M  ZZA  58 a
M  ZZA  59 a
M  ZZA  60 a
M  ZZA  61 a
M  ZZA  62 a
M  ZZA  63 a
M  ZZA  64 a
M  ZZA  65 a
M  ZZA  66 a
M  ZZA  67 a
M  ZZA  68 a
M  ZZA  69 a
M  ZZA  70 a
M  ZZA  71 a
M  ZZA  72 a
M  ZZA  73 a
M  ZZA  74 a
M  ZZA  75 a
M  ZZA  76 a
M  ZZA  77 a
M  ZZA  78 a
M  ZZO   1 1.000000
M  ZZO   2 1.000000
M  ZZO   3 1.000000
M  ZZO   4 1.000000
M  ZZO   5 1.000000
M  ZZO   6 1.000000
M  ZZO   7 1.000000
M  ZZO   8 1.000000
M  ZZO   9 1.000000
M  ZZO  10 1.000000
M  ZZO  11 1.000000
M  ZZO  12 1.000000
M  ZZO  13 1.000000
M  ZZO  14 1.000000
M  ZZO  15 1.000000
M  ZZO  16 1.000000
M  ZZO  17 1.000000
M  ZZO  18 1.000000
M  ZZO  19 1.000000
M  ZZO  20 1.000000
M  ZZO  21 1.000000
M  ZZO  22 1.000000
M  ZZO  23 1.000000
M  ZZO  24 1.000000
M  ZZO  25 1.000000
M  ZZO  26 1.000000
M  ZZO  27 1.000000
M  ZZO  28 1.000000
M  ZZO  29 1.000000
M  ZZO  30 1.000000
M  ZZO  31 1.000000
M  ZZO  32 1.000000
M  ZZO  33 1.000000
M  ZZO  34 1.000000
M  ZZO  35 1.000000
M  ZZO  36 1.000000
M  ZZO  37 1.000000
M  ZZO  38 1.000000
M  ZZO  39 1.000000
M  ZZO  40 1.000000
M  ZZO  41 1.000000
M  ZZO  42 1.000000
M  ZZO  43 1.000000
M  ZZO  44 1.000000
M  ZZO  45 1.000000
M  ZZO  46 1.000000
M  ZZO  47 1.000000
M  ZZO  48 1.000000
M  ZZO  49 1.000000
M  ZZO  50 1.000000
M  ZZO  51 1.000000
M  ZZO  52 1.000000
M  ZZO  53 1.000000
M  ZZO  54 1.000000
M  ZZO  55 1.000000
M  ZZO  56 1.000000
M  ZZO  57 1.000000
M  ZZO  58 1.000000
M  ZZO  59 1.000000
M  ZZO  60 1.000000
M  ZZO  61 1.000000
M  ZZO  62 1.000000
M  ZZO  63 1.000000
M  ZZO  64 1.000000
M  ZZO  65 1.000000
M  ZZO  66 1.000000
M  ZZO  67 1.000000
M  ZZO  68 1.000000
M  ZZO  69 1.000000
M  ZZO  70 1.000000
M  ZZO  71 1.000000
M  ZZO  72 1.000000
M  ZZO  73 1.000000
M  ZZO  74 1.000000
M  ZZO  75 1.000000
M  ZZO  76 1.000000
M  ZZO  77 1.000000
M  ZZO  78 1.000000
M  ZZM   1 1
M  ZZI   1 111
M  ZZM   2 64
M  ZZI   2 105
M  ZZM   3 66
M  ZZI   3 222
M  ZZM   4 63
M  ZZI   4 104
M  ZZM   5 44
M  ZZI   5 248
M  ZZM   6 63
M  ZZI   6 104
M  ZZM   7 37
M  ZZI   7 124
M  ZZM   8 37
M  ZZI   8 125
M  ZZM   9 37
M  ZZI   9 125
M  ZZM  10 37
M  ZZI  10 124
M  ZZM  11 1
M  ZZI  11 113
M  ZZM  12 1
M  ZZI  12 112
M  ZZM  13 8
M  ZZI  13 216
M  ZZM  14 1
M  ZZI  14 112
M  ZZM  15 1
M  ZZI  15 112
M  ZZM  16 6
M  ZZI  16 65
M  ZZM  17 1
M  ZZI  17 112
M  ZZM  18 1
M  ZZI  18 112
M  ZZM  19 10
M  ZZI  19 211
M  ZZM  20 3
M  ZZI  20 121
M  ZZM  21 7
M  ZZI  21 81
M  ZZM  22 1
M  ZZI  22 113
M  ZZM  23 1
M  ZZI  23 112
M  ZZM  24 1
M  ZZI  24 113
M  ZZM  25 6
M  ZZI  25 60
M  ZZM  26 1
M  ZZI  26 112
M  ZZM  27 10
M  ZZI  27 192
M  ZZM  28 3
M  ZZI  28 121
M  ZZM  29 7
M  ZZI  29 81
M  ZZM  30 1
M  ZZI  30 113
M  ZZM  31 39
M  ZZI  31 215
M  ZZM  32 63
M  ZZI  32 104
M  ZZM  33 64
M  ZZI  33 105
M  ZZM  34 1
M  ZZI  34 113
M  ZZM  35 1
M  ZZI  35 112
M  ZZM  36 1
M  ZZI  36 112
M  ZZM  37 1
M  ZZI  37 113
M  ZZM  38 1
M  ZZI  38 112
M  ZZM  39 8
M  ZZI  39 216
M  ZZM  40 1
M  ZZI  40 112
M  ZZM  41 1
M  ZZI  41 112
M  ZZM  42 1
M  ZZI  42 113
M  ZZM  43 37
M  ZZI  43 124
M  ZZM  44 37
M  ZZI  44 125
M  ZZM  45 37
M  ZZI  45 125
M  ZZM  46 37
M  ZZI  46 124
M  ZZM  47 37
M  ZZI  47 124
M  ZZM  48 37
M  ZZI  48 125
M  ZZM  49 40
M  ZZI  49 193
M  ZZM  50 3
M  ZZI  50 121
M  ZZM  51 9
M  ZZI  51 220
M  ZZM  52 3
M  ZZI  52 122
M  ZZM  53 7
M  ZZI  53 80
M  ZZM  54 37
M  ZZI  54 124
M  ZZM  55 37
M  ZZI  55 124
M  ZZM  56 12
M  ZZI  56 92
M  ZZM  57 37
M  ZZI  57 125
M  ZZM  58 37
M  ZZI  58 125
M  ZZM  59 37
M  ZZI  59 125
M  ZZM  60 37
M  ZZI  60 124
M  ZZM  61 1
M  ZZI  61 115
M  ZZM  62 1
M  ZZI  62 112
M  ZZM  63 1
M  ZZI  63 112
M  ZZM  64 1
M  ZZI  64 112
M  ZZM  65 1
M  ZZI  65 112
M  ZZM  66 1
M  ZZI  66 112
M  ZZM  67 1
M  ZZI  67 112
M  ZZM  68 1
M  ZZI  68 112
M  ZZM  69 1
M  ZZI  69 112
M  ZZM  70 1
M  ZZI  70 112
M  ZZM  71 66
M  ZZI  71 222
M  ZZM  72 65
M  ZZI  72 207
M  ZZM  73 1
M  ZZI  73 115
M  ZZM  74 1
M  ZZI  74 111
M  ZZM  75 1
M  ZZI  75 111
M  ZZM  76 1
M  ZZI  76 111
M  ZZM  77 37
M  ZZI  77 125
M  ZZM  78 37
M  ZZI  78 125
M  ZZQ   1 0.181000
M  ZZQ   2 0.046000
M  ZZQ   3 -0.565000
M  ZZQ   4 0.378000
M  ZZQ   5 -0.080000
M  ZZQ   6 -0.013000
M  ZZQ   7 0.053000
M  ZZQ  10 -0.144000
M  ZZQ  11 0.444000
M  ZZQ  12 0.270000
M  ZZQ  13 -0.810000
M  ZZQ  14 0.270000
M  ZZQ  15 0.280000
M  ZZQ  16 -0.560000
M  ZZQ  17 0.280000
M  ZZQ  18 0.270000
M  ZZQ  19 -0.360000
M  ZZQ  20 0.569000
M  ZZQ  21 -0.570000
M  ZZQ  22 0.361000
M  ZZQ  24 0.280000
M  ZZQ  25 -0.280000
M  ZZQ  26 0.300000
M  ZZQ  27 -0.660000
M  ZZQ  28 0.569000
M  ZZQ  29 -0.570000
M  ZZQ  30 0.317000
M  ZZQ  31 0.314000
M  ZZQ  32 -0.152000
M  ZZQ  33 0.046000
M  ZZQ  34 0.181000
M  ZZQ  38 0.270000
M  ZZQ  39 -0.810000
M  ZZQ  40 0.270000
M  ZZQ  42 0.144000
M  ZZQ  43 -0.144000
M  ZZQ  46 -0.144000
M  ZZQ  47 0.100000
M  ZZQ  49 -0.250000
M  ZZQ  50 0.439000
M  ZZQ  51 -0.661000
M  ZZQ  52 0.695000
M  ZZQ  53 -0.570000
M  ZZQ  54 0.086000
M  ZZQ  55 0.177000
M  ZZQ  56 -0.177000
M  ZZQ  60 0.100000
M  ZZQ  61 0.205000
M  ZZQ  68 0.270000
M  ZZQ  71 -0.227000
M  ZZQ  72 -0.418000
M  END
> <name>
aa1a1u

> <comment>
(4r)-1-[(2s)-2-{4-[(1s,4s)-4-({4-[(12's)-4'oxo-5'h-spiro[cyclohexane-1,7'-indolo[1,2-a]-10'-yl]piperidin-1-yl}methyl)cyclohexyl]-iazol-1-yl}-3,3-dimethylbutanoyl]-4-hydroxy[4-(4-methyl-1,3-thiazol-5-yl)phenyl]-2-(mol)ethyl]-l-prolinamide

> <sel>
a_9d4b.aa1a1u

$$$$
