dyf8
  MOLSOFT 08212610512D

112122  0  0  1  0  0  0  0  0999 V2000
    0.0000    0.0000    0.0000 C   0  0  0
    2.1000    1.2124    0.0000 N   0  0  0
    2.8000    2.4249    0.0000 C   0  0  0
    2.8000    4.8497    0.0000 C   0  0  0
    4.9000    6.0622    0.0000 C   0  0  0
    5.6000    9.6995    0.0000 C   0  0  0
    4.9000   10.9119    0.0000 C   0  0  0
    5.6000   12.1244    0.0000 C   0  0  0
   -4.2000   -4.8497    0.0000 C   0  0  0
   -3.5000   -3.6373    0.0000 C   0  0  0
   -2.1000   -3.6373    0.0000 C   0  0  0
   -1.4000   -4.8497    0.0000 C   0  0  0
    0.0000   -4.8497    0.0000 C   0  0  0
    0.7000   -3.6373    0.0000 C   0  0  0
    0.0000   -2.4249    0.0000 C   0  0  0
    0.7000    1.2124    0.0000 C   0  0  0
    2.1000    3.6373    0.0000 C   0  0  0
    4.2000    4.8497    0.0000 C   0  0  0
    4.2000   14.5492    0.0000 C   0  0  0
    7.0000   12.1244    0.0000 C   0  0  0
    9.1000   13.3368    0.0000 C   0  0  1
    9.8000   14.5492    0.0000 C   0  0  0
   11.9000   15.7617    0.0000 C   0  0  0
   11.2000   16.9741    0.0000 C   0  0  0
   11.9000   18.1865    0.0000 C   0  0  0
   13.3000   18.1865    0.0000 C   0  0  0
   14.0000   16.9741    0.0000 C   0  0  0
   13.3000   15.7617    0.0000 C   0  0  0
    9.8000   12.1244    0.0000 C   0  0  0
   11.2000   12.1244    0.0000 C   0  0  0
   13.3000   10.9119    0.0000 C   0  0  0
   14.0000    9.6995    0.0000 C   0  0  0
   11.9000    8.4871    0.0000 C   0  0  0
   11.2000    9.6995    0.0000 C   0  0  0
    7.7000   10.9119    0.0000 C   0  0  0
    7.0000    9.6995    0.0000 C   0  0  0
    4.9000    3.6373    0.0000 C   0  0  0
    4.2000    2.4249    0.0000 C   0  0  0
    2.8000    0.0000    0.0000 C   0  0  0
    2.1000   -1.2124    0.0000 C   0  0  0
    2.1000   -3.6373    0.0000 C   0  0  0
    2.8000   -4.8497    0.0000 C   0  0  2
    3.8725   -5.7496    0.0000 C   0  0  0
    3.8725   -3.9498    0.0000 C   0  0  0
    5.4311   -5.8074    0.0000 C   0  0  0
    6.7467   -6.2862    0.0000 C   0  0  0
    6.2605   -3.5288    0.0000 C   0  0  0
    7.5761   -4.0076    0.0000 C   0  0  0
    9.1347   -5.8651    0.0000 C   0  0  0
   10.2072   -4.9652    0.0000 C   0  0  0
   11.5228   -5.4441    0.0000 C   0  0  0
   12.5952   -4.5442    0.0000 C   0  0  0
   13.9108   -5.0230    0.0000 C   0  0  0
   14.9833   -4.1231    0.0000 C   0  0  0
   16.2988   -4.6019    0.0000 C   0  0  0
   17.3713   -3.7020    0.0000 C   0  0  0
   19.7593   -3.2809    0.0000 C   0  0  1
   19.5162   -1.9022    0.0000 C   0  0  0
   18.1375   -2.1453    0.0000 C   0  0  0
   20.8950   -1.6591    0.0000 C   0  0  0
   19.2731   -0.5235    0.0000 C   0  0  0
   21.0749   -3.7598    0.0000 C   0  0  0
   22.0497   -1.4633    0.0000 C   0  0  0
   23.3478   -0.9388    0.0000 C   0  0  1
   24.2477   -2.0113    0.0000 C   0  0  0
   23.5058   -3.1986    0.0000 C   0  0  1
   24.0302   -4.4966    0.0000 C   0  0  0
   25.9411   -5.9895    0.0000 C   0  0  2
   27.3274   -6.1844    0.0000 C   0  0  0
   28.1894   -5.0811    0.0000 C   0  0  0
   29.5757   -5.2760    0.0000 C   0  0  0
   30.1002   -6.5740    0.0000 C   0  0  0
   31.4866   -6.7689    0.0000 C   0  0  0
   32.4591   -5.7618    0.0000 C   0  0  0
   32.2160   -4.3831    0.0000 C   0  0  0
   33.5225   -7.7619    0.0000 C   0  0  0
   29.2383   -7.6773    0.0000 C   0  0  0
   27.8519   -7.4824    0.0000 C   0  0  0
   25.0791   -7.0927    0.0000 C   0  0  0
    2.1000   -6.0622    0.0000 C   0  0  0
    0.7000   -6.0622    0.0000 C   0  0  0
   -2.1000   -6.0622    0.0000 C   0  0  0
   -3.5000   -6.0622    0.0000 C   0  0  0
    2.9876   13.8492    0.0000 F   0  0  0
    5.4124   15.2492    0.0000 F   0  0  0
    3.5000   15.7617    0.0000 F   0  0  0
    0.7000   -1.2124    0.0000 N   0  0  0
    4.2000    7.2746    0.0000 N   0  0  0
    7.7000   13.3368    0.0000 N   0  0  0
   11.9000   10.9119    0.0000 N   0  0  0
    5.1880   -4.4287    0.0000 N   0  0  0
    7.8192   -5.3863    0.0000 N   0  0  0
   18.6869   -4.1808    0.0000 N   0  0  0
   22.1474   -2.8599    0.0000 N   0  0  0
   25.4166   -4.6915    0.0000 N   0  0  0
   33.7174   -6.3755    0.0000 N   0  0  0
    3.6876   12.6368    0.0000 O   0  0  0
    6.1124   14.0368    0.0000 O   0  0  0
   13.3000    8.4871    0.0000 O   0  0  0
    3.6876    9.1871    0.0000 O   0  0  0
    6.1124    7.7871    0.0000 O   0  0  0
    6.3000    6.0622    0.0000 O   0  0  0
   23.6865    0.4196    0.0000 O   0  0  0
   23.1683   -5.5998    0.0000 O   0  0  0
   21.3180   -5.1385    0.0000 O   0  0  0
   17.1282   -2.3233    0.0000 O   0  0  0
    9.3779   -7.2439    0.0000 O   0  0  0
    4.9000    8.4871    0.0000 S   0  0  0
    4.9000   13.3368    0.0000 S   0  0  0
   11.2000   14.5492    0.0000 S   0  0  0
   32.1438   -8.0050    0.0000 S   0  0  0
   -5.6000   -4.8497    0.0000 Cl  0  0  0
  1 16  1
  1 87  1
  2 16  1
  2 39  1
  2  3  1
  3 38  2
  3 17  1
  4 17  2
  4 18  1
  5 18  1
  5102  2
  5 88  1
  6108  1
  6 36  2
  6  7  1
  7  8  2
  8109  1
  8 20  1
  9 10  1
  9112  1
  9 83  2
 10 11  2
 11 12  1
 12 13  1
 12 82  2
 13 14  2
 13 81  1
 14 15  1
 14 41  1
 15 87  1
 18 37  2
 19109  1
 19 84  1
 19 85  1
 19 86  1
 20 35  2
 20 89  1
 21 89  1
 21 29  1  1  0
 21 22  1
 22110  1
 23110  1
 23 28  2
 23 24  1
 24 25  2
 25 26  1
 26 27  2
 27 28  1
 29 30  1
 30 90  1
 31 90  1
 31 32  1
 32 99  1
 33 34  1
 33 99  1
 34 90  1
 35 36  1
 37 38  1
 39 40  1
 40 87  1
 42 41  1
 42 80  1
 42 43  1  1  0
 42 44  1
 44 91  1
 45 91  1
 45 46  1
 46 92  1
 47 91  1
 47 48  1
 48 92  1
 49 92  1
 49107  2
 49 50  1
 50 51  1
 51 52  1
 52 53  1
 53 54  1
 54 55  1
 55 56  1
 56106  2
 56 93  1
 57 93  1
 57 58  1  1  0
 57 62  1
 58 59  1
 58 60  1
 58 61  1
 62105  2
 62 94  1
 64 63  1
 63 94  1
 64 65  1
 64103  1  6  0
 66 65  1
 66 94  1
 66 67  1  1  0
 67104  2
 67 95  1
 68 95  1
 68 79  1  6  0
 68 69  1
 69 78  2
 69 70  1
 70 71  2
 71 72  1
 72 77  2
 72 73  1
 73111  1
 73 74  2
 74 75  1
 74 96  1
 76 96  2
 76111  1
 77 78  1
 80 81  1
 82 83  1
 88108  1
 97109  2
 98109  2
100108  2
101108  2
M  ZZC   1 c10
M  ZZC   2 n12
M  ZZC   3 c13
M  ZZC   4 c15
M  ZZC   5 c17
M  ZZC   6 c20
M  ZZC   7 c21
M  ZZC   8 c22
M  ZZC   9 c02
M  ZZC  10 c03
M  ZZC  11 c04
M  ZZC  12 c05
M  ZZC  13 c06
M  ZZC  14 c07
M  ZZC  15 c08
M  ZZC  16 c11
M  ZZC  17 c14
M  ZZC  18 c16
M  ZZC  19 c25
M  ZZC  20 c30
M  ZZC  21 c32
M  ZZC  22 c33
M  ZZC  23 c35
M  ZZC  24 c36
M  ZZC  25 c37
M  ZZC  26 c38
M  ZZC  27 c39
M  ZZC  28 c40
M  ZZC  29 c41
M  ZZC  30 c42
M  ZZC  31 c44
M  ZZC  32 c45
M  ZZC  33 c47
M  ZZC  34 c48
M  ZZC  35 c49
M  ZZC  36 c50
M  ZZC  37 c54
M  ZZC  38 c55
M  ZZC  39 c56
M  ZZC  40 c57
M  ZZC  41 c58
M  ZZC  42 c59
M  ZZC  43 c60
M  ZZC  44 c61
M  ZZC  45 c63
M  ZZC  46 c64
M  ZZC  47 c65
M  ZZC  48 c66
M  ZZC  49 c68
M  ZZC  50 c69
M  ZZC  51 c70
M  ZZC  52 c71
M  ZZC  53 c72
M  ZZC  54 c73
M  ZZC  55 c74
M  ZZC  56 c75
M  ZZC  57 c77
M  ZZC  58 c78
M  ZZC  59 c79
M  ZZC  60 c80
M  ZZC  61 c81
M  ZZC  62 c82
M  ZZC  63 c84
M  ZZC  64 c85
M  ZZC  65 c87
M  ZZC  66 c88
M  ZZC  67 c89
M  ZZC  68 c91
M  ZZC  69 c92
M  ZZC  70 c93
M  ZZC  71 c94
M  ZZC  72 c95
M  ZZC  73 c96
M  ZZC  74 c97
M  ZZC  75 c98
M  ZZC  76 ca0
M  ZZC  77 ca2
M  ZZC  78 ca3
M  ZZC  79 ca4
M  ZZC  80 ca9
M  ZZC  81 caa
M  ZZC  82 cab
M  ZZC  83 cac
M  ZZC  84 f26
M  ZZC  85 f27
M  ZZC  86 f28
M  ZZC  87 n09
M  ZZC  88 n18
M  ZZC  89 n31
M  ZZC  90 n43
M  ZZC  91 n62
M  ZZC  92 n67
M  ZZC  93 n76
M  ZZC  94 n83
M  ZZC  95 n90
M  ZZC  96 n99
M  ZZC  97 o24
M  ZZC  98 o29
M  ZZC  99 o46
M  ZZC 100 o51
M  ZZC 101 o52
M  ZZC 102 o53
M  ZZC 103 o86
M  ZZC 104 oa5
M  ZZC 105 oa6
M  ZZC 106 oa7
M  ZZC 107 oa8
M  ZZC 108 s19
M  ZZC 109 s23
M  ZZC 110 s34
M  ZZC 111 sa1
M  ZZC 112 &Cl01
M  ZZA   1 d
M  ZZA   2 d
M  ZZA   3 d
M  ZZA   4 d
M  ZZA   5 d
M  ZZA   6 d
M  ZZA   7 d
M  ZZA   8 d
M  ZZA   9 d
M  ZZA  10 d
M  ZZA  11 d
M  ZZA  12 d
M  ZZA  13 d
M  ZZA  14 d
M  ZZA  15 d
M  ZZA  16 d
M  ZZA  17 d
M  ZZA  18 d
M  ZZA  19 d
M  ZZA  20 d
M  ZZA  21 d
M  ZZA  22 d
M  ZZA  23 d
M  ZZA  24 d
M  ZZA  25 d
M  ZZA  26 d
M  ZZA  27 d
M  ZZA  28 d
M  ZZA  29 d
M  ZZA  30 d
M  ZZA  31 d
M  ZZA  32 d
M  ZZA  33 d
M  ZZA  34 d
M  ZZA  35 d
M  ZZA  36 d
M  ZZA  37 d
M  ZZA  38 d
M  ZZA  39 d
M  ZZA  40 d
M  ZZA  41 d
M  ZZA  42 d
M  ZZA  43 d
M  ZZA  44 d
M  ZZA  45 d
M  ZZA  46 d
M  ZZA  47 d
M  ZZA  48 d
M  ZZA  49 d
M  ZZA  50 d
M  ZZA  51 d
M  ZZA  52 d
M  ZZA  53 d
M  ZZA  54 d
M  ZZA  55 d
M  ZZA  56 d
M  ZZA  57 d
M  ZZA  58 d
M  ZZA  59 d
M  ZZA  60 d
M  ZZA  61 d
M  ZZA  62 d
M  ZZA  63 d
M  ZZA  64 d
M  ZZA  65 d
M  ZZA  66 d
M  ZZA  67 d
M  ZZA  68 d
M  ZZA  69 d
M  ZZA  70 d
M  ZZA  71 d
M  ZZA  72 d
M  ZZA  73 d
M  ZZA  74 d
M  ZZA  75 d
M  ZZA  76 d
M  ZZA  77 d
M  ZZA  78 d
M  ZZA  79 d
M  ZZA  80 d
M  ZZA  81 d
M  ZZA  82 d
M  ZZA  83 d
M  ZZA  84 d
M  ZZA  85 d
M  ZZA  86 d
M  ZZA  87 d
M  ZZA  88 d
M  ZZA  89 d
M  ZZA  90 d
M  ZZA  91 d
M  ZZA  92 d
M  ZZA  93 d
M  ZZA  94 d
M  ZZA  95 d
M  ZZA  96 d
M  ZZA  97 d
M  ZZA  98 d
M  ZZA  99 d
M  ZZA 100 d
M  ZZA 101 d
M  ZZA 102 d
M  ZZA 103 d
M  ZZA 104 d
M  ZZA 105 d
M  ZZA 106 d
M  ZZA 107 d
M  ZZA 108 d
M  ZZA 109 d
M  ZZA 110 d
M  ZZA 111 d
M  ZZA 112 d
M  ZZO   1 1.000000
M  ZZO   2 1.000000
M  ZZO   3 1.000000
M  ZZO   4 1.000000
M  ZZO   5 1.000000
M  ZZO   6 1.000000
M  ZZO   7 1.000000
M  ZZO   8 1.000000
M  ZZO   9 1.000000
M  ZZO  10 1.000000
M  ZZO  11 1.000000
M  ZZO  12 1.000000
M  ZZO  13 1.000000
M  ZZO  14 1.000000
M  ZZO  15 1.000000
M  ZZO  16 1.000000
M  ZZO  17 1.000000
M  ZZO  18 1.000000
M  ZZO  19 1.000000
M  ZZO  20 1.000000
M  ZZO  21 1.000000
M  ZZO  22 1.000000
M  ZZO  23 1.000000
M  ZZO  24 1.000000
M  ZZO  25 1.000000
M  ZZO  26 1.000000
M  ZZO  27 1.000000
M  ZZO  28 1.000000
M  ZZO  29 1.000000
M  ZZO  30 1.000000
M  ZZO  31 1.000000
M  ZZO  32 1.000000
M  ZZO  33 1.000000
M  ZZO  34 1.000000
M  ZZO  35 1.000000
M  ZZO  36 1.000000
M  ZZO  37 1.000000
M  ZZO  38 1.000000
M  ZZO  39 1.000000
M  ZZO  40 1.000000
M  ZZO  41 1.000000
M  ZZO  42 1.000000
M  ZZO  43 1.000000
M  ZZO  44 1.000000
M  ZZO  45 1.000000
M  ZZO  46 1.000000
M  ZZO  47 1.000000
M  ZZO  48 1.000000
M  ZZO  49 1.000000
M  ZZO  50 1.000000
M  ZZO  51 1.000000
M  ZZO  52 1.000000
M  ZZO  53 1.000000
M  ZZO  54 1.000000
M  ZZO  55 1.000000
M  ZZO  56 1.000000
M  ZZO  57 1.000000
M  ZZO  58 1.000000
M  ZZO  59 1.000000
M  ZZO  60 1.000000
M  ZZO  61 1.000000
M  ZZO  62 1.000000
M  ZZO  63 1.000000
M  ZZO  64 1.000000
M  ZZO  65 1.000000
M  ZZO  66 1.000000
M  ZZO  67 1.000000
M  ZZO  68 1.000000
M  ZZO  69 1.000000
M  ZZO  70 1.000000
M  ZZO  71 1.000000
M  ZZO  72 1.000000
M  ZZO  73 1.000000
M  ZZO  74 1.000000
M  ZZO  75 1.000000
M  ZZO  76 1.000000
M  ZZO  77 1.000000
M  ZZO  78 1.000000
M  ZZO  79 1.000000
M  ZZO  80 1.000000
M  ZZO  81 1.000000
M  ZZO  82 1.000000
M  ZZO  83 1.000000
M  ZZO  84 1.000000
M  ZZO  85 1.000000
M  ZZO  86 1.000000
M  ZZO  87 1.000000
M  ZZO  88 1.000000
M  ZZO  89 1.000000
M  ZZO  90 1.000000
M  ZZO  91 1.000000
M  ZZO  92 1.000000
M  ZZO  93 1.000000
M  ZZO  94 1.000000
M  ZZO  95 1.000000
M  ZZO  96 1.000000
M  ZZO  97 1.000000
M  ZZO  98 1.000000
M  ZZO  99 1.000000
M  ZZO 100 1.000000
M  ZZO 101 1.000000
M  ZZO 102 1.000000
M  ZZO 103 1.000000
M  ZZO 104 1.000000
M  ZZO 105 1.000000
M  ZZO 106 1.000000
M  ZZO 107 1.000000
M  ZZO 108 1.000000
M  ZZO 109 1.000000
M  ZZO 110 1.000000
M  ZZO 111 1.000000
M  ZZO 112 1.000000
M  ZZM   1 1
M  ZZI   1 112
M  ZZM   2 40
M  ZZI   2 193
M  ZZM   3 37
M  ZZI   3 124
M  ZZM   4 37
M  ZZI   4 125
M  ZZM   5 3
M  ZZI   5 122
M  ZZM   6 37
M  ZZI   6 124
M  ZZM   7 37
M  ZZI   7 125
M  ZZM   8 37
M  ZZI   8 124
M  ZZM   9 37
M  ZZI   9 124
M  ZZM  10 37
M  ZZI  10 125
M  ZZM  11 37
M  ZZI  11 125
M  ZZM  12 37
M  ZZI  12 124
M  ZZM  13 2
M  ZZI  13 120
M  ZZM  14 2
M  ZZI  14 120
M  ZZM  15 1
M  ZZI  15 112
M  ZZM  16 1
M  ZZI  16 112
M  ZZM  17 37
M  ZZI  17 125
M  ZZM  18 37
M  ZZI  18 124
M  ZZM  19 1
M  ZZI  19 115
M  ZZM  20 37
M  ZZI  20 124
M  ZZM  21 1
M  ZZI  21 113
M  ZZM  22 1
M  ZZI  22 112
M  ZZM  23 37
M  ZZI  23 124
M  ZZM  24 37
M  ZZI  24 125
M  ZZM  25 37
M  ZZI  25 125
M  ZZM  26 37
M  ZZI  26 125
M  ZZM  27 37
M  ZZI  27 125
M  ZZM  28 37
M  ZZI  28 125
M  ZZM  29 1
M  ZZI  29 112
M  ZZM  30 1
M  ZZI  30 112
M  ZZM  31 1
M  ZZI  31 112
M  ZZM  32 1
M  ZZI  32 112
M  ZZM  33 1
M  ZZI  33 112
M  ZZM  34 1
M  ZZI  34 112
M  ZZM  35 37
M  ZZI  35 125
M  ZZM  36 37
M  ZZI  36 125
M  ZZM  37 37
M  ZZI  37 125
M  ZZM  38 37
M  ZZI  38 125
M  ZZM  39 1
M  ZZI  39 112
M  ZZM  40 1
M  ZZI  40 112
M  ZZM  41 1
M  ZZI  41 112
M  ZZM  42 1
M  ZZI  42 115
M  ZZM  43 1
M  ZZI  43 111
M  ZZM  44 1
M  ZZI  44 112
M  ZZM  45 1
M  ZZI  45 112
M  ZZM  46 1
M  ZZI  46 112
M  ZZM  47 1
M  ZZI  47 112
M  ZZM  48 1
M  ZZI  48 112
M  ZZM  49 3
M  ZZI  49 121
M  ZZM  50 1
M  ZZI  50 112
M  ZZM  51 1
M  ZZI  51 112
M  ZZM  52 1
M  ZZI  52 112
M  ZZM  53 1
M  ZZI  53 112
M  ZZM  54 1
M  ZZI  54 112
M  ZZM  55 1
M  ZZI  55 112
M  ZZM  56 3
M  ZZI  56 121
M  ZZM  57 1
M  ZZI  57 113
M  ZZM  58 1
M  ZZI  58 115
M  ZZM  59 1
M  ZZI  59 111
M  ZZM  60 1
M  ZZI  60 111
M  ZZM  61 1
M  ZZI  61 111
M  ZZM  62 3
M  ZZI  62 121
M  ZZM  63 1
M  ZZI  63 112
M  ZZM  64 1
M  ZZI  64 113
M  ZZM  65 1
M  ZZI  65 112
M  ZZM  66 1
M  ZZI  66 113
M  ZZM  67 3
M  ZZI  67 121
M  ZZM  68 1
M  ZZI  68 113
M  ZZM  69 37
M  ZZI  69 124
M  ZZM  70 37
M  ZZI  70 125
M  ZZM  71 37
M  ZZI  71 125
M  ZZM  72 37
M  ZZI  72 124
M  ZZM  73 63
M  ZZI  73 104
M  ZZM  74 64
M  ZZI  74 105
M  ZZM  75 1
M  ZZI  75 111
M  ZZM  76 63
M  ZZI  76 104
M  ZZM  77 37
M  ZZI  77 125
M  ZZM  78 37
M  ZZI  78 125
M  ZZM  79 1
M  ZZI  79 111
M  ZZM  80 1
M  ZZI  80 112
M  ZZM  81 1
M  ZZI  81 112
M  ZZM  82 37
M  ZZI  82 125
M  ZZM  83 37
M  ZZI  83 125
M  ZZM  84 11
M  ZZI  84 90
M  ZZM  85 11
M  ZZI  85 90
M  ZZM  86 11
M  ZZI  86 90
M  ZZM  87 8
M  ZZI  87 216
M  ZZM  88 43
M  ZZI  88 196
M  ZZM  89 40
M  ZZI  89 194
M  ZZM  90 8
M  ZZI  90 216
M  ZZM  91 8
M  ZZI  91 216
M  ZZM  92 10
M  ZZI  92 192
M  ZZM  93 10
M  ZZI  93 211
M  ZZM  94 10
M  ZZI  94 192
M  ZZM  95 10
M  ZZI  95 211
M  ZZM  96 66
M  ZZI  96 222
M  ZZM  97 32
M  ZZI  97 73
M  ZZM  98 32
M  ZZI  98 73
M  ZZM  99 6
M  ZZI  99 65
M  ZZM 100 32
M  ZZI 100 73
M  ZZM 101 32
M  ZZI 101 73
M  ZZM 102 7
M  ZZI 102 80
M  ZZM 103 6
M  ZZI 103 60
M  ZZM 104 7
M  ZZI 104 81
M  ZZM 105 7
M  ZZI 105 81
M  ZZM 106 7
M  ZZI 106 81
M  ZZM 107 7
M  ZZI 107 81
M  ZZM 108 18
M  ZZI 108 250
M  ZZM 109 18
M  ZZI 109 250
M  ZZM 110 15
M  ZZI 110 240
M  ZZM 111 44
M  ZZI 111 248
M  ZZM 112 12
M  ZZI 112 92
M  ZZQ   1 0.270000
M  ZZQ   2 -0.838000
M  ZZQ   3 0.100000
M  ZZQ   5 0.720000
M  ZZQ   6 -0.009000
M  ZZQ   8 -0.009000
M  ZZQ   9 0.177000
M  ZZQ  12 0.028000
M  ZZQ  13 -0.167000
M  ZZQ  14 -0.276000
M  ZZQ  15 0.408000
M  ZZQ  16 0.369000
M  ZZQ  18 0.086000
M  ZZQ  19 1.125000
M  ZZQ  20 0.100000
M  ZZQ  21 0.369000
M  ZZQ  22 0.230000
M  ZZQ  23 0.101000
M  ZZQ  30 0.270000
M  ZZQ  31 0.270000
M  ZZQ  32 0.280000
M  ZZQ  33 0.280000
M  ZZQ  34 0.270000
M  ZZQ  39 0.369000
M  ZZQ  40 0.270000
M  ZZQ  41 0.138000
M  ZZQ  44 0.270000
M  ZZQ  45 0.270000
M  ZZQ  46 0.300000
M  ZZQ  47 0.270000
M  ZZQ  48 0.300000
M  ZZQ  49 0.569000
M  ZZQ  50 0.061000
M  ZZQ  55 0.061000
M  ZZQ  56 0.569000
M  ZZQ  57 0.361000
M  ZZQ  62 0.569000
M  ZZQ  63 0.300000
M  ZZQ  64 0.280000
M  ZZQ  66 0.361000
M  ZZQ  67 0.569000
M  ZZQ  68 0.444000
M  ZZQ  69 -0.144000
M  ZZQ  72 0.053000
M  ZZQ  73 -0.013000
M  ZZQ  74 0.046000
M  ZZQ  75 0.181000
M  ZZQ  76 0.378000
M  ZZQ  81 0.138000
M  ZZQ  84 -0.340000
M  ZZQ  85 -0.340000
M  ZZQ  86 -0.340000
M  ZZQ  87 -0.810000
M  ZZQ  88 -0.374000
M  ZZQ  89 -0.469000
M  ZZQ  90 -0.810000
M  ZZQ  91 -0.810000
M  ZZQ  92 -0.660000
M  ZZQ  93 -0.360000
M  ZZQ  94 -0.660000
M  ZZQ  95 -0.360000
M  ZZQ  96 -0.565000
M  ZZQ  97 -0.650000
M  ZZQ  98 -0.650000
M  ZZQ  99 -0.560000
M  ZZQ 100 -0.650000
M  ZZQ 101 -0.650000
M  ZZQ 102 -0.570000
M  ZZQ 103 -0.280000
M  ZZQ 104 -0.570000
M  ZZQ 105 -0.570000
M  ZZQ 106 -0.570000
M  ZZQ 107 -0.570000
M  ZZQ 108 1.447000
M  ZZQ 109 1.204000
M  ZZQ 110 -0.331000
M  ZZQ 111 -0.080000
M  ZZQ 112 -0.177000
M  END
> <name>
dyf8

> <comment>
n-[8-(4-{[(1r,3r,4s)-4-(4-chlorophenyl)-1-met(4-{[4-{[(2r)-4-(morpholin-4-yl)-1-(phenylsubutan-2-yl]amino}-3-(trifluoromethanesulfony1-sulfonyl]carbamoyl}phenyl)piperazin-1-yl]methyl}cyclohexyl]methyl}piperazin-1-yl)-oxooctanoyl]-3-methyl-l-valyl-(4r)-4-hydroxy

> <sel>
a_8fy0.dyf8

$$$$
