va1bnt
  MOLSOFT 08192622302D

 54 59  0  0  1  0  0  0  0  0999 V2000
    6.1903   -9.8280    0.0000 N   0  0  0
    2.2227   -7.3071    0.0000 N   0  0  0
    4.5678  -11.6300    0.0000 C   0  0  1
    4.1351  -12.9615    0.0000 C   0  0  0
    2.7351  -12.9615    0.0000 C   0  0  2
    2.3025  -11.6300    0.0000 C   0  0  0
    3.4351   -9.4071    0.0000 C   0  0  0
    1.0103   -6.6071    0.0000 C   0  0  0
   -2.6270   -4.5071    0.0000 C   0  0  0
   -0.2022   -3.1071    0.0000 C   0  0  0
   -5.0519   -3.1071    0.0000 C   0  0  0
   -7.4768   -3.1071    0.0000 C   0  0  0
   -7.4768   -4.5071    0.0000 C   0  0  0
   -8.6892   -5.2071    0.0000 C   0  0  0
   -9.9017   -3.1071    0.0000 C   0  0  0
    1.0103   -9.4071    0.0000 C   0  0  0
    1.7103  -10.6196    0.0000 C   0  0  0
    8.5622  -10.3321    0.0000 C   0  0  0
    7.5218   -9.3954    0.0000 C   0  0  1
    5.8992  -11.1974    0.0000 C   0  0  0
    6.9396  -12.1342    0.0000 O   0  0  0
    1.9122  -14.0941    0.0000 O   0  0  0
    3.4351  -10.8071    0.0000 N   0  0  0
    4.6476   -8.7071    0.0000 O   0  0  0
    2.2227   -8.7071    0.0000 C   0  0  2
   -0.2022   -7.3071    0.0000 O   0  0  0
    1.0103   -5.2071    0.0000 C   0  0  0
   -0.2022   -4.5071    0.0000 N   0  0  0
   -1.4146   -5.2071    0.0000 C   0  0  0
   -2.6270   -3.1071    0.0000 N   0  0  0
   -1.4146   -2.4071    0.0000 C   0  0  0
   -3.8395   -2.4071    0.0000 C   0  0  0
   -6.2644   -2.4071    0.0000 C   0  0  0
   -6.2644   -1.0071    0.0000 N   0  0  0
   -5.0519   -0.3071    0.0000 N   0  0  0
   -3.8395   -1.0071    0.0000 C   0  0  0
   -2.6270   -0.3071    0.0000 N   0  0  0
   -9.9017   -4.5071    0.0000 C   0  0  0
   -8.6892   -2.4071    0.0000 C   0  0  0
   -8.6892   -1.0071    0.0000 O   0  0  0
    0.3103   -8.1947    0.0000 C   0  0  0
   -0.2022  -10.1071    0.0000 C   0  0  0
    7.8129   -8.0260    0.0000 C   0  0  0
    6.7725   -7.0892    0.0000 C   0  0  0
    7.0635   -5.7198    0.0000 C   0  0  0
    8.3950   -5.2871    0.0000 C   0  0  0
    9.4354   -6.2239    0.0000 C   0  0  0
    9.1443   -7.5933    0.0000 C   0  0  0
    8.6861   -3.9177    0.0000 C   0  0  0
    7.7493   -2.8773    0.0000 S   0  0  0
    8.4493   -1.6649    0.0000 C   0  0  0
    9.8187   -1.9560    0.0000 N   0  0  0
    9.9651   -3.3483    0.0000 C   0  0  0
   11.1775   -4.0483    0.0000 C   0  0  0
 19  1  1
  1 20  1
  2  8  1
 25  2  1
  3  4  1
  3 20  1  6  0
  3 23  1
  5  4  1
  5  6  1
  5 22  1  1  0
  6 23  1
  7 23  1
  7 24  2
 25  7  1
  8 26  2
  8 27  1
  9 29  1
  9 30  1
 10 28  1
 10 31  1
 11 32  2
 11 33  1
 12 13  2
 12 33  1
 12 39  1
 13 14  1
 14 38  2
 15 38  1
 15 39  2
 16 17  1
 25 16  1  6  0
 16 41  1
 16 42  1
 19 18  1  6  0
 19 43  1
 20 21  2
 27 28  1
 28 29  1
 30 31  1
 30 32  1
 32 36  1
 33 34  2
 34 35  1
 35 36  2
 36 37  1
 39 40  1
 43 44  1
 43 48  2
 44 45  2
 45 46  1
 46 47  2
 46 49  1
 47 48  1
 49 50  1
 49 53  2
 50 51  1
 51 52  2
 52 53  1
 53 54  1
M  ZZC   1 n1
M  ZZC   2 n3
M  ZZC   3 c4
M  ZZC   4 c5
M  ZZC   5 c6
M  ZZC   6 c7
M  ZZC   7 c8
M  ZZC   8 c10
M  ZZC   9 c13
M  ZZC  10 c15
M  ZZC  11 c17
M  ZZC  12 c20
M  ZZC  13 c21
M  ZZC  14 c22
M  ZZC  15 c24
M  ZZC  16 c26
M  ZZC  17 c28
M  ZZC  18 c1
M  ZZC  19 c2
M  ZZC  20 c3
M  ZZC  21 o1
M  ZZC  22 o2
M  ZZC  23 n2
M  ZZC  24 o3
M  ZZC  25 c9
M  ZZC  26 o4
M  ZZC  27 c11
M  ZZC  28 n4
M  ZZC  29 c12
M  ZZC  30 n5
M  ZZC  31 c14
M  ZZC  32 c16
M  ZZC  33 c18
M  ZZC  34 n6
M  ZZC  35 n7
M  ZZC  36 c19
M  ZZC  37 n8
M  ZZC  38 c23
M  ZZC  39 c25
M  ZZC  40 o5
M  ZZC  41 c27
M  ZZC  42 c29
M  ZZC  43 c30
M  ZZC  44 c31
M  ZZC  45 c32
M  ZZC  46 c33
M  ZZC  47 c34
M  ZZC  48 c35
M  ZZC  49 c36
M  ZZC  50 s
M  ZZC  51 c37
M  ZZC  52 n9
M  ZZC  53 c38
M  ZZC  54 c39
M  ZZA   1 v
M  ZZA   2 v
M  ZZA   3 v
M  ZZA   4 v
M  ZZA   5 v
M  ZZA   6 v
M  ZZA   7 v
M  ZZA   8 v
M  ZZA   9 v
M  ZZA  10 v
M  ZZA  11 v
M  ZZA  12 v
M  ZZA  13 v
M  ZZA  14 v
M  ZZA  15 v
M  ZZA  16 v
M  ZZA  17 v
M  ZZA  18 v
M  ZZA  19 v
M  ZZA  20 v
M  ZZA  21 v
M  ZZA  22 v
M  ZZA  23 v
M  ZZA  24 v
M  ZZA  25 v
M  ZZA  26 v
M  ZZA  27 v
M  ZZA  28 v
M  ZZA  29 v
M  ZZA  30 v
M  ZZA  31 v
M  ZZA  32 v
M  ZZA  33 v
M  ZZA  34 v
M  ZZA  35 v
M  ZZA  36 v
M  ZZA  37 v
M  ZZA  38 v
M  ZZA  39 v
M  ZZA  40 v
M  ZZA  41 v
M  ZZA  42 v
M  ZZA  43 v
M  ZZA  44 v
M  ZZA  45 v
M  ZZA  46 v
M  ZZA  47 v
M  ZZA  48 v
M  ZZA  49 v
M  ZZA  50 v
M  ZZA  51 v
M  ZZA  52 v
M  ZZA  53 v
M  ZZA  54 v
M  ZZO   1 1.000000
M  ZZO   2 1.000000
M  ZZO   3 1.000000
M  ZZO   4 1.000000
M  ZZO   5 1.000000
M  ZZO   6 1.000000
M  ZZO   7 1.000000
M  ZZO   8 1.000000
M  ZZO   9 1.000000
M  ZZO  10 1.000000
M  ZZO  11 1.000000
M  ZZO  12 1.000000
M  ZZO  13 1.000000
M  ZZO  14 1.000000
M  ZZO  15 1.000000
M  ZZO  16 1.000000
M  ZZO  17 1.000000
M  ZZO  18 1.000000
M  ZZO  19 1.000000
M  ZZO  20 1.000000
M  ZZO  21 1.000000
M  ZZO  22 1.000000
M  ZZO  23 1.000000
M  ZZO  24 1.000000
M  ZZO  25 1.000000
M  ZZO  26 1.000000
M  ZZO  27 1.000000
M  ZZO  28 1.000000
M  ZZO  29 1.000000
M  ZZO  30 1.000000
M  ZZO  31 1.000000
M  ZZO  32 1.000000
M  ZZO  33 1.000000
M  ZZO  34 1.000000
M  ZZO  35 1.000000
M  ZZO  36 1.000000
M  ZZO  37 1.000000
M  ZZO  38 1.000000
M  ZZO  39 1.000000
M  ZZO  40 1.000000
M  ZZO  41 1.000000
M  ZZO  42 1.000000
M  ZZO  43 1.000000
M  ZZO  44 1.000000
M  ZZO  45 1.000000
M  ZZO  46 1.000000
M  ZZO  47 1.000000
M  ZZO  48 1.000000
M  ZZO  49 1.000000
M  ZZO  50 1.000000
M  ZZO  51 1.000000
M  ZZO  52 1.000000
M  ZZO  53 1.000000
M  ZZO  54 1.000000
M  ZZM   1 8
M  ZZI   1 181
M  ZZM   2 8
M  ZZI   2 181
M  ZZM   3 1
M  ZZI   3 100
M  ZZM   4 1
M  ZZI   4 100
M  ZZM   5 1
M  ZZI   5 100
M  ZZM   6 1
M  ZZI   6 100
M  ZZM   7 1
M  ZZI   7 100
M  ZZM   8 1
M  ZZI   8 100
M  ZZM   9 1
M  ZZI   9 100
M  ZZM  10 1
M  ZZI  10 100
M  ZZM  11 1
M  ZZI  11 100
M  ZZM  12 1
M  ZZI  12 100
M  ZZM  13 1
M  ZZI  13 100
M  ZZM  14 1
M  ZZI  14 100
M  ZZM  15 1
M  ZZI  15 100
M  ZZM  16 1
M  ZZI  16 100
M  ZZM  17 1
M  ZZI  17 100
M  ZZM  18 1
M  ZZI  18 100
M  ZZM  19 1
M  ZZI  19 100
M  ZZM  20 1
M  ZZI  20 100
M  ZZM  21 6
M  ZZI  21 50
M  ZZM  22 6
M  ZZI  22 50
M  ZZM  23 8
M  ZZI  23 181
M  ZZM  24 6
M  ZZI  24 50
M  ZZM  25 1
M  ZZI  25 100
M  ZZM  26 6
M  ZZI  26 50
M  ZZM  27 1
M  ZZI  27 100
M  ZZM  28 8
M  ZZI  28 181
M  ZZM  29 1
M  ZZI  29 100
M  ZZM  30 8
M  ZZI  30 181
M  ZZM  31 1
M  ZZI  31 100
M  ZZM  32 1
M  ZZI  32 100
M  ZZM  33 1
M  ZZI  33 100
M  ZZM  34 8
M  ZZI  34 181
M  ZZM  35 8
M  ZZI  35 181
M  ZZM  36 1
M  ZZI  36 100
M  ZZM  37 8
M  ZZI  37 181
M  ZZM  38 1
M  ZZI  38 100
M  ZZM  39 1
M  ZZI  39 100
M  ZZM  40 6
M  ZZI  40 50
M  ZZM  41 1
M  ZZI  41 100
M  ZZM  42 1
M  ZZI  42 100
M  ZZM  43 1
M  ZZI  43 100
M  ZZM  44 1
M  ZZI  44 100
M  ZZM  45 1
M  ZZI  45 100
M  ZZM  46 1
M  ZZI  46 100
M  ZZM  47 1
M  ZZI  47 100
M  ZZM  48 1
M  ZZI  48 100
M  ZZM  49 1
M  ZZI  49 100
M  ZZM  50 15
M  ZZI  50 240
M  ZZM  51 1
M  ZZI  51 100
M  ZZM  52 8
M  ZZI  52 181
M  ZZM  53 1
M  ZZI  53 100
M  ZZM  54 1
M  ZZI  54 100
M  END
> <name>
va1bnt

> <comment>
n-({4-[(6m)-3-amino-6-(2-hydroxyphenyl)pyripiperazin-1-yl}acetyl)-3-methyl-l-valyl-(4r-n-{(1s)-1-[4-(4-methyl-1,3-thiazol-5-yl)ph-l-prolinamide

> <sel>
a_9mr9.va1bnt

$$$$
